LVTestCase/Loads2.txt
New Load.LOAD1 Phases=1 Bus1=10.1 kV=0.23 kW=4.481 kvar=0.869
New Load.LOAD2 Phases=1 Bus1=5.3 kV=0.23 kW=5.062 kvar=0.939
New Load.LOAD3 Phases=1 Bus1=7.1 kV=0.23 kW=3.600 kvar=0.869
New Load.LOAD4 Phases=1 Bus1=13.3 kV=0.23 kW=4.625 kvar=0.820
New Load.LOAD5 Phases=1 Bus1=11.3 kV=0.23 kW=10.616 kvar=1.960
New Load.LOAD6 Phases=1 Bus1=12.1 kV=0.23 kW=6.837 kvar=1.956
New Load.LOAD7 Phases=1 Bus1=21.3 kV=0.23 kW=3.121 kvar=0.434
New Load.LOAD8 Phases=1 Bus1=25.2 kV=0.23 kW=8.263 kvar=1.998
New Load.LOAD9 Phases=1 Bus1=33.1 kV=0.23 kW=3.013 kvar=0.735
New Load.LOAD10 Phases=1 Bus1=26.3 kV=0.23 kW=7.819 kvar=0.890
New Load.LOAD11 Phases=1 Bus1=29.3 kV=0.23 kW=14.694 kvar=0.960
New Load.LOAD12 Phases=1 Bus1=30.2 kV=0.23 kW=8.006 kvar=1.419
New Load.LOAD13 Phases=3 Bus1=37.1.2.3 kV=0.23 kW=11.250 kvar=3.489
New Load.LOAD14 Phases=1 Bus1=34.2 kV=0.23 kW=2.138 kvar=0.532
New Load.LOAD15 Phases=1 Bus1=39.2 kV=0.23 kW=15.631 kvar=1.192
New Load.LOAD16 Phases=1 Bus1=40.2 kV=0.23 kW=7.519 kvar=1.305
New Load.LOAD17 Phases=1 Bus1=42.1 kV=0.23 kW=4.565 kvar=1.338
New Load.LOAD18 Phases=1 Bus1=49.1 kV=0.23 kW=10.731 kvar=1.338
New Load.LOAD19 Phases=1 Bus1=46.2 kV=0.23 kW=7.431 kvar=1.285
New Load.LOAD20 Phases=1 Bus1=50.2 kV=0.23 kW=4.112 kvar=1.002
New Load.LOAD21 Phases=1 Bus1=47.1 kV=0.23 kW=7.056 kvar=1.288
New Load.LOAD22 Phases=1 Bus1=45.3 kV=0.23 kW=8.462 kvar=1.754
New Load.LOAD23 Phases=1 Bus1=52.2 kV=0.23 kW=3.088 kvar=0.756
New Load.LOAD24 Phases=3 Bus1=76.1.2.3 kV=0.23 kW=11.250 kvar=3.489
New Load.LOAD25 Phases=1 Bus1=67.1 kV=0.23 kW=3.189 kvar=0.782
New Load.LOAD26 Phases=1 Bus1=57.2 kV=0.23 kW=7.994 kvar=1.421
New Load.LOAD27 Phases=1 Bus1=72.3 kV=0.23 kW=13.519 kvar=0.686
New Load.LOAD28 Phases=1 Bus1=66.1 kV=0.23 kW=1.787 kvar=0.476
New Load.LOAD29 Phases=1 Bus1=81.3 kV=0.23 kW=6.419 kvar=0.747
New Load.LOAD30 Phases=1 Bus1=80.3 kV=0.23 kW=8.900 kvar=1.849
New Load.LOAD31 Phases=1 Bus1=75.1 kV=0.23 kW=2.325 kvar=0.869
New Load.LOAD32 Phases=1 Bus1=77.1 kV=0.23 kW=2.562 kvar=0.939
New Load.LOAD33 Phases=1 Bus1=54.2 kV=0.23 kW=4.816 kvar=0.869
New Load.LOAD34 Phases=1 Bus1=64.3 kV=0.23 kW=4.625 kvar=0.820
New Load.LOAD35 Phases=1 Bus1=62.1 kV=0.23 kW=7.759 kvar=2.120
New Load.LOAD36 Phases=3 Bus1=60.1.2.3 kV=0.23 kW=11.250 kvar=3.489
New Load.LOAD37 Phases=1 Bus1=97.3 kV=0.23 kW=2.913 kvar=0.434
New Load.LOAD38 Phases=1 Bus1=73.1 kV=0.23 kW=6.669 kvar=1.204
New Load.LOAD39 Phases=1 Bus1=83.3 kV=0.23 kW=13.794 kvar=0.735
New Load.LOAD40 Phases=1 Bus1=103.1 kV=0.23 kW=4.669 kvar=0.939
New Load.LOAD41 Phases=1 Bus1=106.3 kV=0.23 kW=5.162 kvar=0.960
New Load.LOAD42 Phases=1 Bus1=107.3 kV=0.23 kW=6.562 kvar=1.294
New Load.LOAD43 Phases=1 Bus1=95.1 kV=0.23 kW=15.081 kvar=1.353
New Load.LOAD44 Phases=1 Bus1=87.1 kV=0.23 kW=3.044 kvar=0.532
New Load.LOAD45 Phases=1 Bus1=88.3 kV=0.23 kW=5.975 kvar=1.163
New Load.LOAD46 Phases=1 Bus1=115.2 kV=0.23 kW=5.703 kvar=1.305
New Load.LOAD47 Phases=1 Bus1=112.1 kV=0.23 kW=10.781 kvar=1.355
New Load.LOAD48 Phases=1 Bus1=93.3 kV=0.23 kW=7.756 kvar=1.361
New Load.LOAD49 Phases=1 Bus1=102.3 kV=0.23 kW=6.688 kvar=1.326
New Load.LOAD50 Phases=1 Bus1=96.2 kV=0.23 kW=7.131 kvar=1.002
New Load.LOAD51 Phases=1 Bus1=104.2 kV=0.23 kW=5.838 kvar=1.419
New Load.LOAD52 Phases=1 Bus1=113.1 kV=0.23 kW=2.901 kvar=0.684
New Load.LOAD53 Phases=1 Bus1=116.2 kV=0.23 kW=8.100 kvar=1.956
New Load.LOAD54 Phases=1 Bus1=110.2 kV=0.23 kW=6.031 kvar=0.960
New Load.LOAD55 Phases=1 Bus1=114.2 kV=0.23 kW=16.031 kvar=1.294